Circuit: * C:\Users\husam\Desktop\sim\Draft1.asc

Direct Newton iteration for .op point succeeded.

Date: Fri May 20 01:38:39 2016
Total elapsed time: 0.019 seconds.

tnom = 27
temp = 27
method = trap
totiter = 12
traniter = 0
tranpoints = 0
accept = 0
rejected = 0
matrix size = 22
fillins = 11
solver = Normal
Matrix Compiler1:      91 opcodes
Matrix Compiler2: 1.94 KB object code size

